LAMMPS (29 Oct 2020)
# bulk water

units           metal
boundary        p p p
atom_style      atomic

neighbor        2.0 bin
neigh_modify    every 10 delay 0 check no

read_data	water.lmp
Reading data file ...
  triclinic box = (0.0000000 0.0000000 0.0000000) to (12.444700 12.444700 12.444700) with tilt (0.0000000 0.0000000 0.0000000)
  reading atoms ...
  192 atoms
mass 		1 16
mass		2 2

pair_style	deepmd frozen_model.pb
pair_coeff

velocity        all create 330.0 23456789

fix             1 all nvt temp 330.0 330.0 0.5
timestep        0.0005
thermo_style    custom step pe ke etotal temp press vol
thermo          100
dump		1 all custom 100 water.dump id type x y z

run             1000
  update every 10 steps, delay 0 steps, check no
Step PotEng KinEng TotEng Temp Press Volume
0   -29944.265    8.1472669   -29936.118          330    20618.626    1927.3176
Averages over the last 6 of 11 rows, steps 500 to 1000:
PotEng KinEng TotEng Temp Press Volume
-29944 7.8816 -29936.1 319.239 17853.7 1927.32
Loop time of 16.0336 on 32 procs for 1000 steps with 192 atoms

Please see the log.cite file for references relevant to this simulation
